Hello, World!
Goodbye, World!



New line.
